2024-12-03 23:05 - INFO - Executing /home/CompileMyLife/workspace/Global-History-Predictor-with-Index-Selection-SimpleScalar/simulator/Run.pl -db /home/CompileMyLife/workspace/Global-History-Predictor-with-Index-Selection-SimpleScalar/simulator/bench.db -dir /home/CompileMyLife/workspace/Global-History-Predictor-with-Index-Selection-SimpleScalar/simulator/results/gcc1 -benchmark gcc -sim /home/CompileMyLife/workspace/Global-History-Predictor-with-Index-Selection-SimpleScalar/simulator/ss3/sim-outorder -args "-bpred taken -fastfwd 10000000 -max:inst 10000000" >& /home/CompileMyLife/workspace/Global-History-Predictor-with-Index-Selection-SimpleScalar/simulator/results/gcc_taken.out
