reading benchmark database /home/CompileMyLife/workspace/Global-History-Predictor-with-Index-Selection-SimpleScalar/simulator/bench.db
Doing li
Installing li
ln -s /home/CompileMyLife/workspace/Global-History-Predictor-with-Index-Selection-SimpleScalar/simulator/bench/little/li.ss run.li
Pre-run li
cp /home/CompileMyLife/workspace/Global-History-Predictor-with-Index-Selection-SimpleScalar/simulator/input/ref/*.lsp .
Run li
/home/CompileMyLife/workspace/Global-History-Predictor-with-Index-Selection-SimpleScalar/simulator/ss3/sim-outorder -bpred 2lev -bpred:2lev 1 32768 12 1 -fastfwd 10000000 -max:inst 10000000 run.li *.lsp > li.out
sim-outorder: SimpleScalar/PISA Tool Set version 3.0 of August, 2003.
Copyright (c) 1994-2003 by Todd M. Austin, Ph.D. and SimpleScalar, LLC.
All Rights Reserved. This version of SimpleScalar is licensed for academic
non-commercial use.  No portion of this work may be used by any commercial
entity, or for any commercial purpose, without the prior written permission
of SimpleScalar, LLC (info@simplescalar.com).

sim: command line: /home/CompileMyLife/workspace/Global-History-Predictor-with-Index-Selection-SimpleScalar/simulator/ss3/sim-outorder -bpred 2lev -bpred:2lev 1 32768 12 1 -fastfwd 10000000 -max:inst 10000000 run.li au.lsp boyer.lsp browse.lsp ctak.lsp dderiv.lsp deriv.lsp destru0.lsp destru1.lsp destru2.lsp destrum0.lsp destrum1.lsp destrum2.lsp div2.lsp puzzle0.lsp puzzle1.lsp tak0.lsp tak1.lsp tak2.lsp takr.lsp triang.lsp xit.lsp 

sim: simulation started @ Sun Dec  1 00:50:28 2024, options follow:

sim-outorder: This simulator implements a very detailed out-of-order issue
superscalar processor with a two-level memory system and speculative
execution support.  This simulator is a performance simulator, tracking the
latency of all pipeline operations.

# -config                     # load configuration from a file
# -dumpconfig                 # dump configuration to a file
# -h                    false # print help message    
# -v                    false # verbose operation     
# -d                    false # enable debug message  
# -i                    false # start in Dlite debugger
-seed                       1 # random number generator seed (0 for timer seed)
# -q                    false # initialize and terminate immediately
# -chkpt               <null> # restore EIO trace execution from <fname>
# -redir:sim           <null> # redirect simulator output to file (non-interactive only)
# -redir:prog          <null> # redirect simulated program output to file
-nice                       0 # simulator scheduling priority
-max:inst            10000000 # maximum number of inst's to execute
-fastfwd             10000000 # number of insts skipped before timing starts
# -ptrace              <null> # generate pipetrace, i.e., <fname|stdout|stderr> <range>
-fetch:ifqsize              4 # instruction fetch queue size (in insts)
-fetch:mplat                3 # extra branch mis-prediction latency
-fetch:speed                1 # speed of front-end of machine relative to execution core
-bpred                   2lev # branch predictor type {nottaken|taken|perfect|bimod|2lev|comb}
-bpred:bimod     2048 # bimodal predictor config (<table size>)
-bpred:2lev      1 32768 12 1 # 2-level predictor config (<l1size> <l2size> <hist_size> <index_type>)
-bpred:comb      1024 # combining predictor config (<meta_table_size>)
-bpred:ras                  8 # return address stack size (0 for no return stack)
-bpred:btb       512 4 # BTB config (<num_sets> <associativity>)
# -bpred:spec_update       <null> # speculative predictors update in {ID|WB} (default non-spec)
-decode:width               4 # instruction decode B/W (insts/cycle)
-issue:width                4 # instruction issue B/W (insts/cycle)
-issue:inorder          false # run pipeline with in-order issue
-issue:wrongpath         true # issue instructions down wrong execution paths
-commit:width               4 # instruction commit B/W (insts/cycle)
-ruu:size                  16 # register update unit (RUU) size
-lsq:size                   8 # load/store queue (LSQ) size
-cache:dl1       dl1:128:32:4:l # l1 data cache config, i.e., {<config>|none}
-cache:dl1lat               1 # l1 data cache hit latency (in cycles)
-cache:dl2       ul2:1024:64:4:l # l2 data cache config, i.e., {<config>|none}
-cache:dl2lat               6 # l2 data cache hit latency (in cycles)
-cache:il1       il1:512:32:1:l # l1 inst cache config, i.e., {<config>|dl1|dl2|none}
-cache:il1lat               1 # l1 instruction cache hit latency (in cycles)
-cache:il2                dl2 # l2 instruction cache config, i.e., {<config>|dl2|none}
-cache:il2lat               6 # l2 instruction cache hit latency (in cycles)
-cache:flush            false # flush caches on system calls
-cache:icompress        false # convert 64-bit inst addresses to 32-bit inst equivalents
-mem:lat         18 2 # memory access latency (<first_chunk> <inter_chunk>)
-mem:width                  8 # memory access bus width (in bytes)
-tlb:itlb        itlb:16:4096:4:l # instruction TLB config, i.e., {<config>|none}
-tlb:dtlb        dtlb:32:4096:4:l # data TLB config, i.e., {<config>|none}
-tlb:lat                   30 # inst/data TLB miss latency (in cycles)
-res:ialu                   4 # total number of integer ALU's available
-res:imult                  1 # total number of integer multiplier/dividers available
-res:memport                2 # total number of memory system ports available (to CPU)
-res:fpalu                  4 # total number of floating point ALU's available
-res:fpmult                 1 # total number of floating point multiplier/dividers available
# -pcstat              <null> # profile stat(s) against text addr's (mult uses ok)
-bugcompat              false # operate in backward-compatible bugs mode (for testing only)

  Pipetrace range arguments are formatted as follows:

    {{@|#}<start>}:{{@|#|+}<end>}

  Both ends of the range are optional, if neither are specified, the entire
  execution is traced.  Ranges that start with a `@' designate an address
  range to be traced, those that start with an `#' designate a cycle count
  range.  All other range values represent an instruction count range.  The
  second argument, if specified with a `+', indicates a value relative
  to the first argument, e.g., 1000:+100 == 1000:1100.  Program symbols may
  be used in all contexts.

    Examples:   -ptrace FOO.trc #0:#1000
                -ptrace BAR.trc @2000:
                -ptrace BLAH.trc :1500
                -ptrace UXXE.trc :
                -ptrace FOOBAR.trc @main:+278

  Branch predictor configuration examples for 2-level predictor:
    Configurations:   N, M, W, X
      N   # entries in first level (# of shift register(s))
      W   width of shift register(s)
      M   # entries in 2nd level (# of counters, or other FSM)
      X   (concat-2/xor-1/no-0) (concatenate history and address for 2nd level index) / (xor history and address for 2nd level index)

   NOTE: For the X configuration, 3 is ignored

    Sample predictors:
      GAg     : 1, W, 2^W, 0
      GAp     : 1, W, M (M > 2^W), 0
      PAg     : N, W, 2^W, 0
      PAp     : N, W, M (M == 2^(N+W)), 0
      gshare  : 1, W, 2^W, 1
      gselect : 1, W, 2^W, 2
  Predictor `comb' combines a bimodal and a 2-level predictor.

  The cache config parameter <config> has the following format:

    <name>:<nsets>:<bsize>:<assoc>:<repl>

    <name>   - name of the cache being defined
    <nsets>  - number of sets in the cache
    <bsize>  - block size of the cache
    <assoc>  - associativity of the cache
    <repl>   - block replacement strategy, 'l'-LRU, 'f'-FIFO, 'r'-random

    Examples:   -cache:dl1 dl1:4096:32:1:l
                -dtlb dtlb:128:4096:32:r

  Cache levels can be unified by pointing a level of the instruction cache
  hierarchy at the data cache hiearchy using the "dl1" and "dl2" cache
  configuration arguments.  Most sensible combinations are supported, e.g.,

    A unified l2 cache (il2 is pointed at dl2):
      -cache:il1 il1:128:64:1:l -cache:il2 dl2
      -cache:dl1 dl1:256:32:1:l -cache:dl2 ul2:1024:64:2:l

    Or, a fully unified cache hierarchy (il1 pointed at dl1):
      -cache:il1 dl1
      -cache:dl1 ul1:256:32:1:l -cache:dl2 ul2:1024:64:2:l



sim: ** fast forwarding 10000000 insts **
sim: ** starting performance simulation **

sim: ** simulation statistics **
sim_num_insn               10000002 # total number of instructions committed
sim_num_refs                4372410 # total number of loads and stores committed
sim_num_loads               2670630 # total number of loads committed
sim_num_stores         1701780.0000 # total number of stores committed
sim_num_branches            2275768 # total number of branches committed
sim_elapsed_time                 12 # total simulation time in seconds
sim_inst_rate           833333.5000 # simulation speed (in insts/sec)
sim_total_insn             11118725 # total number of instructions executed
sim_total_refs              4820070 # total number of loads and stores executed
sim_total_loads             2959252 # total number of loads executed
sim_total_stores       1860818.0000 # total number of stores executed
sim_total_branches          2518647 # total number of branches executed
sim_cycle                   5781605 # total simulation time in cycles
sim_IPC                      1.7296 # instructions per cycle
sim_CPI                      0.5782 # cycles per instruction
sim_exec_BW                  1.9231 # total instructions (mis-spec + committed) per cycle
sim_IPB                      4.3941 # instruction per branch
IFQ_count                  17431270 # cumulative IFQ occupancy
IFQ_fcount                  3643569 # cumulative IFQ full count
ifq_occupancy                3.0150 # avg IFQ occupancy (insn's)
ifq_rate                     1.9231 # avg IFQ dispatch rate (insn/cycle)
ifq_latency                  1.5677 # avg IFQ occupant latency (cycle's)
ifq_full                     0.6302 # fraction of time (cycle's) IFQ was full
RUU_count                  66706915 # cumulative RUU occupancy
RUU_fcount                  1713179 # cumulative RUU full count
ruu_occupancy               11.5378 # avg RUU occupancy (insn's)
ruu_rate                     1.9231 # avg RUU dispatch rate (insn/cycle)
ruu_latency                  5.9995 # avg RUU occupant latency (cycle's)
ruu_full                     0.2963 # fraction of time (cycle's) RUU was full
LSQ_count                  28624641 # cumulative LSQ occupancy
LSQ_fcount                  1376941 # cumulative LSQ full count
lsq_occupancy                4.9510 # avg LSQ occupancy (insn's)
lsq_rate                     1.9231 # avg LSQ dispatch rate (insn/cycle)
lsq_latency                  2.5745 # avg LSQ occupant latency (cycle's)
lsq_full                     0.2382 # fraction of time (cycle's) LSQ was full
sim_slip                  103808410 # total number of slip cycles
avg_sim_slip                10.3808 # the average slip between issue and retirement
bpred_2lev.lookups          2635922 # total number of bpred lookups
bpred_2lev.updates          2275765 # total number of updates
bpred_2lev.addr_hits        2143778 # total number of address-predicted hits
bpred_2lev.dir_hits         2181299 # total number of direction-predicted hits (includes addr-hits)
bpred_2lev.misses             94466 # total number of misses
bpred_2lev.jr_hits           344823 # total number of address-predicted hits for JR's
bpred_2lev.jr_seen           382138 # total number of JR's seen
bpred_2lev.jr_non_ras_hits.PP        80565 # total number of address-predicted hits for non-RAS JR's
bpred_2lev.jr_non_ras_seen.PP        93742 # total number of non-RAS JR's seen
bpred_2lev.bpred_addr_rate    0.9420 # branch address-prediction rate (i.e., addr-hits/updates)
bpred_2lev.bpred_dir_rate    0.9585 # branch direction-prediction rate (i.e., all-hits/updates)
bpred_2lev.bpred_jr_rate    0.9024 # JR address-prediction rate (i.e., JR addr-hits/JRs seen)
bpred_2lev.bpred_jr_non_ras_rate.PP    0.8594 # non-RAS JR addr-pred rate (ie, non-RAS JR hits/JRs seen)
bpred_2lev.retstack_pushes       334681 # total number of address pushed onto ret-addr stack
bpred_2lev.retstack_pops       312081 # total number of address popped off of ret-addr stack
bpred_2lev.used_ras.PP       288396 # total number of RAS predictions used
bpred_2lev.ras_hits.PP       264258 # total number of RAS hits
bpred_2lev.ras_rate.PP    0.9163 # RAS prediction rate (i.e., RAS hits/used RAS)
il1.accesses               11612453 # total number of accesses
il1.hits                   11540117 # total number of hits
il1.misses                    72336 # total number of misses
il1.replacements              72004 # total number of replacements
il1.writebacks                    0 # total number of writebacks
il1.invalidations                 0 # total number of invalidations
il1.miss_rate                0.0062 # miss rate (i.e., misses/ref)
il1.repl_rate                0.0062 # replacement rate (i.e., repls/ref)
il1.wb_rate                  0.0000 # writeback rate (i.e., wrbks/ref)
il1.inv_rate                 0.0000 # invalidation rate (i.e., invs/ref)
dl1.accesses                4451194 # total number of accesses
dl1.hits                    4373591 # total number of hits
dl1.misses                    77603 # total number of misses
dl1.replacements              77091 # total number of replacements
dl1.writebacks                63782 # total number of writebacks
dl1.invalidations                 0 # total number of invalidations
dl1.miss_rate                0.0174 # miss rate (i.e., misses/ref)
dl1.repl_rate                0.0173 # replacement rate (i.e., repls/ref)
dl1.wb_rate                  0.0143 # writeback rate (i.e., wrbks/ref)
dl1.inv_rate                 0.0000 # invalidation rate (i.e., invs/ref)
ul2.accesses                 213721 # total number of accesses
ul2.hits                     211878 # total number of hits
ul2.misses                     1843 # total number of misses
ul2.replacements                  0 # total number of replacements
ul2.writebacks                    0 # total number of writebacks
ul2.invalidations                 0 # total number of invalidations
ul2.miss_rate                0.0086 # miss rate (i.e., misses/ref)
ul2.repl_rate                0.0000 # replacement rate (i.e., repls/ref)
ul2.wb_rate                  0.0000 # writeback rate (i.e., wrbks/ref)
ul2.inv_rate                 0.0000 # invalidation rate (i.e., invs/ref)
itlb.accesses              11612453 # total number of accesses
itlb.hits                  11612438 # total number of hits
itlb.misses                      15 # total number of misses
itlb.replacements                 0 # total number of replacements
itlb.writebacks                   0 # total number of writebacks
itlb.invalidations                0 # total number of invalidations
itlb.miss_rate               0.0000 # miss rate (i.e., misses/ref)
itlb.repl_rate               0.0000 # replacement rate (i.e., repls/ref)
itlb.wb_rate                 0.0000 # writeback rate (i.e., wrbks/ref)
itlb.inv_rate                0.0000 # invalidation rate (i.e., invs/ref)
dtlb.accesses               4481233 # total number of accesses
dtlb.hits                   4481201 # total number of hits
dtlb.misses                      32 # total number of misses
dtlb.replacements                 0 # total number of replacements
dtlb.writebacks                   0 # total number of writebacks
dtlb.invalidations                0 # total number of invalidations
dtlb.miss_rate               0.0000 # miss rate (i.e., misses/ref)
dtlb.repl_rate               0.0000 # replacement rate (i.e., repls/ref)
dtlb.wb_rate                 0.0000 # writeback rate (i.e., wrbks/ref)
dtlb.inv_rate                0.0000 # invalidation rate (i.e., invs/ref)
sim_invalid_addrs                 0 # total non-speculative bogus addresses seen (debug var)
ld_text_base             0x00400000 # program text (code) segment base
ld_text_size                 180640 # program text (code) size in bytes
ld_data_base             0x10000000 # program initialized data segment base
ld_data_size                  20788 # program init'ed `.data' and uninit'ed `.bss' size in bytes
ld_stack_base            0x7fffc000 # program stack segment base (highest address in stack)
ld_stack_size                 16384 # program initial stack size
ld_prog_entry            0x00400140 # program entry point (initial PC)
ld_environ_base          0x7fff8000 # program environment base address address
ld_target_big_endian              0 # target executable endian-ness, non-zero if big endian
mem.page_count                   89 # total number of pages allocated
mem.page_mem                   356k # total size of memory pages allocated
mem.ptab_misses                  89 # total first level page table misses
mem.ptab_accesses         148526806 # total page table accesses
mem.ptab_miss_rate           0.0000 # first level page table miss rate

Post-run li
rm -f -r *.lsp li.*
